cluster_decentral/netdata/2014-07-22_Bottrop_2DSM_grid.uct
##C 2007.05.01
Exported from: C:\Users\cmo\Desktop\2DSM\dev\NetworkLayer\Grid_Models\2014-07-22_Bottrop_2DSM_grid.nepprj 
      Created: Donnerstag, Oktober 02, 2014, 16:29:28
##N
##Z2DSM
N_ABS_14 N_ABS_14     0 0        0.00000 0.00000 0.00000 0.00000 0.00000 0.00000 0.00000 0.00000 0.000 0.00000
NODE_ADS_18 NODE_ADS_18  0 0        0.00000 0.00000 0.00000 0.00000 0.00000 0.00000 0.00000 0.00000 0.000 0.00000
NODE_ADS_14 NODE_ADS_14  0 0        0.00000 0.00000 0.00000 0.00000 0.00000 0.00000 0.00000 0.00000 0.000 0.00000
NODE_ADS_10 NODE_ADS_10  0 0        0.00000 0.00000 0.00000 0.00000 0.00000 0.00000 0.00000 0.00000 0.000 0.00000
NODE_ADS_6 NODE_ADS_6   0 0        0.00000 0.00000 0.00000 0.00000 0.00000 0.00000 0.00000 0.00000 0.000 0.00000
N38      N38          0 0        0.00000 0.00000 0.00000 0.00000 0.00000 0.00000 0.00000 0.00000 0.000 0.00000
N-38     N-38         0 0        0.00000 0.00000 0.00000 0.00000 0.00000 0.00000 0.00000 0.00000 0.000 0.00000
N1229863505 N1229863505  0 0        0.00000 0.00000 0.00000 0.00000 0.00000 0.00000 0.00000 0.00000 0.000 0.00000
N1229863232 N1229863232  0 0        0.00000 0.00000 0.00000 0.00000 0.00000 0.00000 0.00000 0.00000 0.000 0.00000
N1229863235 N1229863235  0 0        0.00000 0.00000 0.00000 0.00000 0.00000 0.00000 0.00000 0.00000 0.000 0.00000
N1229863238 N1229863238  0 0        0.00000 0.00000 0.00000 0.00000 0.00000 0.00000 0.00000 0.00000 0.000 0.00000
N1229863241 N1229863241  0 0        0.00000 0.00000 0.00000 0.00000 0.00000 0.00000 0.00000 0.00000 0.000 0.00000
N1229863244 N1229863244  0 0        0.00000 0.00000 0.00000 0.00000 0.00000 0.00000 0.00000 0.00000 0.000 0.00000
N1229863247 N1229863247  0 0        0.00000 0.00000 0.00000 0.00000 0.00000 0.00000 0.00000 0.00000 0.000 0.00000
N1229862962 N1229862962  0 0        0.00000 0.00000 0.00000 0.00000 0.00000 0.00000 0.00000 0.00000 0.000 0.00000
N1229862965 N1229862965  0 0        0.00000 0.00000 0.00000 0.00000 0.00000 0.00000 0.00000 0.00000 0.000 0.00000
N1229862968 N1229862968  0 0        0.00000 0.00000 0.00000 0.00000 0.00000 0.00000 0.00000 0.00000 0.000 0.00000
N1229862971 N1229862971  0 0        0.00000 0.00000 0.00000 0.00000 0.00000 0.00000 0.00000 0.00000 0.000 0.00000
N1229862974 N1229862974  0 0        0.00000 0.00000 0.00000 0.00000 0.00000 0.00000 0.00000 0.00000 0.000 0.00000
N1229862423 N1229862423  0 0        0.00000 0.00000 0.00000 0.00000 0.00000 0.00000 0.00000 0.00000 0.000 0.00000
N1229862153 N1229862153  0 0        0.00000 0.00000 0.00000 0.00000 0.00000 0.00000 0.00000 0.00000 0.000 0.00000
N1229861874 N1229861874  0 0        0.00000 0.00000 0.00000 0.00000 0.00000 0.00000 0.00000 0.00000 0.000 0.00000
N1229861877 N1229861877  0 0        0.00000 0.00000 0.00000 0.00000 0.00000 0.00000 0.00000 0.00000 0.000 0.00000
N1229861880 N1229861880  0 0        0.00000 0.00000 0.00000 0.00000 0.00000 0.00000 0.00000 0.00000 0.000 0.00000
N1229861883 N1229861883  0 0        0.00000 0.00000 0.00000 0.00000 0.00000 0.00000 0.00000 0.00000 0.000 0.00000
N1229861886 N1229861886  0 0        0.00000 0.00000 0.00000 0.00000 0.00000 0.00000 0.00000 0.00000 0.000 0.00000
N1229861330 N1229861330  0 0        0.00000 0.00000 0.00000 0.00000 0.00000 0.00000 0.00000 0.00000 0.000 0.00000
N1229861333 N1229861333  0 0        0.00000 0.00000 0.00000 0.00000 0.00000 0.00000 0.00000 0.00000 0.000 0.00000
N1229861336 N1229861336  0 0        0.00000 0.00000 0.00000 0.00000 0.00000 0.00000 0.00000 0.00000 0.000 0.00000
N1229861339 N1229861339  0 0        0.00000 0.00000 0.00000 0.00000 0.00000 0.00000 0.00000 0.00000 0.000 0.00000
N1229861342 N1229861342  0 0        0.00000 0.00000 0.00000 0.00000 0.00000 0.00000 0.00000 0.00000 0.000 0.00000
N1229859981 N1229859981  0 0        0.00000 0.00000 0.00000 0.00000 0.00000 0.00000 0.00000 0.00000 0.000 0.00000
N1229859978 N1229859978  0 0        0.00000 0.00000 0.00000 0.00000 0.00000 0.00000 0.00000 0.00000 0.000 0.00000
N1229859709 N1229859709  0 0        0.00000 0.00000 0.00000 0.00000 0.00000 0.00000 0.00000 0.00000 0.000 0.00000
N1229859706 N1229859706  0 0        0.00000 0.00000 0.00000 0.00000 0.00000 0.00000 0.00000 0.00000 0.000 0.00000
N1229859703 N1229859703  0 0        0.00000 0.00000 0.00000 0.00000 0.00000 0.00000 0.00000 0.00000 0.000 0.00000
N1229859700 N1229859700  0 0        0.00000 0.00000 0.00000 0.00000 0.00000 0.00000 0.00000 0.00000 0.000 0.00000
N1229859697 N1229859697  0 0        0.00000 0.00000 0.00000 0.00000 0.00000 0.00000 0.00000 0.00000 0.000 0.00000
N1229858895 N1229858895  0 0        0.00000 0.00000 0.00000 0.00000 0.00000 0.00000 0.00000 0.00000 0.000 0.00000
N1229858892 N1229858892  0 0        0.00000 0.00000 0.00000 0.00000 0.00000 0.00000 0.00000 0.00000 0.000 0.00000
N1229858889 N1229858889  0 0        0.00000 0.00000 0.00000 0.00000 0.00000 0.00000 0.00000 0.00000 0.000 0.00000
N1229858886 N1229858886  0 0        0.00000 0.00000 0.00000 0.00000 0.00000 0.00000 0.00000 0.00000 0.000 0.00000
N1229858883 N1229858883  0 0        0.00000 0.00000 0.00000 0.00000 0.00000 0.00000 0.00000 0.00000 0.000 0.00000
N1229858880 N1229858880  0 0        0.00000 0.00000 0.00000 0.00000 0.00000 0.00000 0.00000 0.00000 0.000 0.00000
N1229858350 N1229858350  0 0        0.00000 0.00000 0.00000 0.00000 0.00000 0.00000 0.00000 0.00000 0.000 0.00000
N1229858347 N1229858347  0 0        0.00000 0.00000 0.00000 0.00000 0.00000 0.00000 0.00000 0.00000 0.000 0.00000
N1229858344 N1229858344  0 0        0.00000 0.00000 0.00000 0.00000 0.00000 0.00000 0.00000 0.00000 0.000 0.00000
N1229858341 N1229858341  0 0        0.00000 0.00000 0.00000 0.00000 0.00000 0.00000 0.00000 0.00000 0.000 0.00000
N1229858338 N1229858338  0 0        0.00000 0.00000 0.00000 0.00000 0.00000 0.00000 0.00000 0.00000 0.000 0.00000
N1229858068 N1229858068  0 0        0.00000 0.00000 0.00000 0.00000 0.00000 0.00000 0.00000 0.00000 0.000 0.00000
N1229858065 N1229858065  0 0        0.00000 0.00000 0.00000 0.00000 0.00000 0.00000 0.00000 0.00000 0.000 0.00000
N1229856174 N1229856174  0 0        0.00000 0.00000 0.00000 0.00000 0.00000 0.00000 0.00000 0.00000 0.000 0.00000
N1229843388 N1229843388  0 0        0.00000 0.00000 0.00000 0.00000 0.00000 0.00000 0.00000 0.00000 0.000 0.00000
N1229843382 N1229843382  0 0        0.00000 0.00000 0.00000 0.00000 0.00000 0.00000 0.00000 0.00000 0.000 0.00000
N1229843379 N1229843379  0 0        0.00000 0.00000 0.00000 0.00000 0.00000 0.00000 0.00000 0.00000 0.000 0.00000
N1229843376 N1229843376  0 0        0.00000 0.00000 0.00000 0.00000 0.00000 0.00000 0.00000 0.00000 0.000 0.00000
N1229842018 N1229842018  0 0        0.00000 0.00000 0.00000 0.00000 0.00000 0.00000 0.00000 0.00000 0.000 0.00000
N1229842021 N1229842021  0 0        0.00000 0.00000 0.00000 0.00000 0.00000 0.00000 0.00000 0.00000 0.000 0.00000
N1229842024 N1229842024  0 0        0.00000 0.00000 0.00000 0.00000 0.00000 0.00000 0.00000 0.00000 0.000 0.00000
N1229842027 N1229842027  0 0        0.00000 0.00000 0.00000 0.00000 0.00000 0.00000 0.00000 0.00000 0.000 0.00000
N1229842030 N1229842030  0 0        0.00000 0.00000 0.00000 0.00000 0.00000 0.00000 0.00000 0.00000 0.000 0.00000
N_ABS_28 N_ABS_28     0 0        0.00000 0.00000 0.00000 0.00000 0.00000 0.00000 0.00000 0.00000 0.000 0.00000
N_ABS_26 N_ABS_26     0 0        0.00000 0.00000 0.00000 0.00000 0.00000 0.00000 0.00000 0.00000 0.000 0.00000
N_ABS_25 N_ABS_25     0 0        0.00000 0.00000 0.00000 0.00000 0.00000 0.00000 0.00000 0.00000 0.000 0.00000
N_ABS_23 N_ABS_23     0 0        0.00000 0.00000 0.00000 0.00000 0.00000 0.00000 0.00000 0.00000 0.000 0.00000
N_ABS_24 N_ABS_24     0 0        0.00000 0.00000 0.00000 0.00000 0.00000 0.00000 0.00000 0.00000 0.000 0.00000
N_ADS_33 N_ADS_33     0 0        0.00000 0.00000 0.00000 0.00000 0.00000 0.00000 0.00000 0.00000 0.000 0.00000
N_ADS_31 N_ADS_31     0 0        0.00000 0.00000 0.00000 0.00000 0.00000 0.00000 0.00000 0.00000 0.000 0.00000
NODE_WHS_28 NODE_WHS_28  0 0        0.00000 0.00000 0.00000 0.00000 0.00000 0.00000 0.00000 0.00000 0.000 0.00000
N_LRS_2  N_LRS_2      0 0        0.00000 0.00000 0.00000 0.00000 0.00000 0.00000 0.00000 0.00000 0.000 0.00000
N_LRS_1  N_LRS_1      0 0        0.00000 0.00000 0.00000 0.00000 0.00000 0.00000 0.00000 0.00000 0.000 0.00000
N_HS_5   N_HS_5       0 0        0.00000 0.00000 0.00000 0.00000 0.00000 0.00000 0.00000 0.00000 0.000 0.00000
N_HS_6   N_HS_6       0 0        0.00000 0.00000 0.00000 0.00000 0.00000 0.00000 0.00000 0.00000 0.000 0.00000
N_DS_13  N_DS_13      0 0        0.00000 0.00000 0.00000 0.00000 0.00000 0.00000 0.00000 0.00000 0.000 0.00000
N26      N26          0 0        0.00000 0.00000 0.00000 0.00000 0.00000 0.00000 0.00000 0.00000 0.000 0.00000
N31      N31          0 0        0.00000 0.00000 0.00000 0.00000 0.00000 0.00000 0.00000 0.00000 0.000 0.00000
N-31     N-31         0 0        0.00000 0.00000 0.00000 0.00000 0.00000 0.00000 0.00000 0.00000 0.000 0.00000
N1229863793 N1229863793  0 0        0.00000 0.00000 0.00000 0.00000 0.00000 0.00000 0.00000 0.00000 0.000 0.00000
N1229863250 N1229863250  0 0        0.00000 0.00000 0.00000 0.00000 0.00000 0.00000 0.00000 0.00000 0.000 0.00000
N1229863253 N1229863253  0 0        0.00000 0.00000 0.00000 0.00000 0.00000 0.00000 0.00000 0.00000 0.000 0.00000
N1229863256 N1229863256  0 0        0.00000 0.00000 0.00000 0.00000 0.00000 0.00000 0.00000 0.00000 0.000 0.00000
N1229863259 N1229863259  0 0        0.00000 0.00000 0.00000 0.00000 0.00000 0.00000 0.00000 0.00000 0.000 0.00000
N1229863262 N1229863262  0 0        0.00000 0.00000 0.00000 0.00000 0.00000 0.00000 0.00000 0.00000 0.000 0.00000
N1229862977 N1229862977  0 0        0.00000 0.00000 0.00000 0.00000 0.00000 0.00000 0.00000 0.00000 0.000 0.00000
N1229862980 N1229862980  0 0        0.00000 0.00000 0.00000 0.00000 0.00000 0.00000 0.00000 0.00000 0.000 0.00000
N1229862983 N1229862983  0 0        0.00000 0.00000 0.00000 0.00000 0.00000 0.00000 0.00000 0.00000 0.000 0.00000
N1229862986 N1229862986  0 0        0.00000 0.00000 0.00000 0.00000 0.00000 0.00000 0.00000 0.00000 0.000 0.00000
N1229862989 N1229862989  0 0        0.00000 0.00000 0.00000 0.00000 0.00000 0.00000 0.00000 0.00000 0.000 0.00000
N1229861889 N1229861889  0 0        0.00000 0.00000 0.00000 0.00000 0.00000 0.00000 0.00000 0.00000 0.000 0.00000
N1229861892 N1229861892  0 0        0.00000 0.00000 0.00000 0.00000 0.00000 0.00000 0.00000 0.00000 0.000 0.00000
N1229861895 N1229861895  0 0        0.00000 0.00000 0.00000 0.00000 0.00000 0.00000 0.00000 0.00000 0.000 0.00000
N1229861898 N1229861898  0 0        0.00000 0.00000 0.00000 0.00000 0.00000 0.00000 0.00000 0.00000 0.000 0.00000
N1229861901 N1229861901  0 0        0.00000 0.00000 0.00000 0.00000 0.00000 0.00000 0.00000 0.00000 0.000 0.00000
N1229861345 N1229861345  0 0        0.00000 0.00000 0.00000 0.00000 0.00000 0.00000 0.00000 0.00000 0.000 0.00000
N1229861348 N1229861348  0 0        0.00000 0.00000 0.00000 0.00000 0.00000 0.00000 0.00000 0.00000 0.000 0.00000
N1229861351 N1229861351  0 0        0.00000 0.00000 0.00000 0.00000 0.00000 0.00000 0.00000 0.00000 0.000 0.00000
N1229861354 N1229861354  0 0        0.00000 0.00000 0.00000 0.00000 0.00000 0.00000 0.00000 0.00000 0.000 0.00000
N1229861357 N1229861357  0 0        0.00000 0.00000 0.00000 0.00000 0.00000 0.00000 0.00000 0.00000 0.000 0.00000
N1229859999 N1229859999  0 0        0.00000 0.00000 0.00000 0.00000 0.00000 0.00000 0.00000 0.00000 0.000 0.00000
N1229859996 N1229859996  0 0        0.00000 0.00000 0.00000 0.00000 0.00000 0.00000 0.00000 0.00000 0.000 0.00000
N1229859993 N1229859993  0 0        0.00000 0.00000 0.00000 0.00000 0.00000 0.00000 0.00000 0.00000 0.000 0.00000
N1229859990 N1229859990  0 0        0.00000 0.00000 0.00000 0.00000 0.00000 0.00000 0.00000 0.00000 0.000 0.00000
N1229859987 N1229859987  0 0        0.00000 0.00000 0.00000 0.00000 0.00000 0.00000 0.00000 0.00000 0.000 0.00000
N1229859984 N1229859984  0 0        0.00000 0.00000 0.00000 0.00000 0.00000 0.00000 0.00000 0.00000 0.000 0.00000
N1229859724 N1229859724  0 0        0.00000 0.00000 0.00000 0.00000 0.00000 0.00000 0.00000 0.00000 0.000 0.00000
N1229859721 N1229859721  0 0        0.00000 0.00000 0.00000 0.00000 0.00000 0.00000 0.00000 0.00000 0.000 0.00000
N1229859715 N1229859715  0 0        0.00000 0.00000 0.00000 0.00000 0.00000 0.00000 0.00000 0.00000 0.000 0.00000
N1229858910 N1229858910  0 0        0.00000 0.00000 0.00000 0.00000 0.00000 0.00000 0.00000 0.00000 0.000 0.00000
N1229858907 N1229858907  0 0        0.00000 0.00000 0.00000 0.00000 0.00000 0.00000 0.00000 0.00000 0.000 0.00000
N1229858904 N1229858904  0 0        0.00000 0.00000 0.00000 0.00000 0.00000 0.00000 0.00000 0.00000 0.000 0.00000
N1229858901 N1229858901  0 0        0.00000 0.00000 0.00000 0.00000 0.00000 0.00000 0.00000 0.00000 0.000 0.00000
N1229858898 N1229858898  0 0        0.00000 0.00000 0.00000 0.00000 0.00000 0.00000 0.00000 0.00000 0.000 0.00000
N1229858637 N1229858637  0 0        0.00000 0.00000 0.00000 0.00000 0.00000 0.00000 0.00000 0.00000 0.000 0.00000
N1229858634 N1229858634  0 0        0.00000 0.00000 0.00000 0.00000 0.00000 0.00000 0.00000 0.00000 0.000 0.00000
N1229858631 N1229858631  0 0        0.00000 0.00000 0.00000 0.00000 0.00000 0.00000 0.00000 0.00000 0.000 0.00000
N1229858628 N1229858628  0 0        0.00000 0.00000 0.00000 0.00000 0.00000 0.00000 0.00000 0.00000 0.000 0.00000
N1229858625 N1229858625  0 0        0.00000 0.00000 0.00000 0.00000 0.00000 0.00000 0.00000 0.00000 0.000 0.00000
N1229858362 N1229858362  0 0        0.00000 0.00000 0.00000 0.00000 0.00000 0.00000 0.00000 0.00000 0.000 0.00000
N1229858359 N1229858359  0 0        0.00000 0.00000 0.00000 0.00000 0.00000 0.00000 0.00000 0.00000 0.000 0.00000
N1229858356 N1229858356  0 0        0.00000 0.00000 0.00000 0.00000 0.00000 0.00000 0.00000 0.00000 0.000 0.00000
N1229858353 N1229858353  0 0        0.00000 0.00000 0.00000 0.00000 0.00000 0.00000 0.00000 0.00000 0.000 0.00000
N1229858093 N1229858093  0 0        0.00000 0.00000 0.00000 0.00000 0.00000 0.00000 0.00000 0.00000 0.000 0.00000
N1229858090 N1229858090  0 0        0.00000 0.00000 0.00000 0.00000 0.00000 0.00000 0.00000 0.00000 0.000 0.00000
N1229858087 N1229858087  0 0        0.00000 0.00000 0.00000 0.00000 0.00000 0.00000 0.00000 0.00000 0.000 0.00000
N1229858084 N1229858084  0 0        0.00000 0.00000 0.00000 0.00000 0.00000 0.00000 0.00000 0.00000 0.000 0.00000
N1229856733 N1229856733  0 0        0.00000 0.00000 0.00000 0.00000 0.00000 0.00000 0.00000 0.00000 0.000 0.00000
N1229856177 N1229856177  0 0        0.00000 0.00000 0.00000 0.00000 0.00000 0.00000 0.00000 0.00000 0.000 0.00000
N1229856180 N1229856180  0 0        0.00000 0.00000 0.00000 0.00000 0.00000 0.00000 0.00000 0.00000 0.000 0.00000
N1229855905 N1229855905  0 0        0.00000 0.00000 0.00000 0.00000 0.00000 0.00000 0.00000 0.00000 0.000 0.00000
N1229855911 N1229855911  0 0        0.00000 0.00000 0.00000 0.00000 0.00000 0.00000 0.00000 0.00000 0.000 0.00000
N1229855914 N1229855914  0 0        0.00000 0.00000 0.00000 0.00000 0.00000 0.00000 0.00000 0.00000 0.000 0.00000
N1229855917 N1229855917  0 0        0.00000 0.00000 0.00000 0.00000 0.00000 0.00000 0.00000 0.00000 0.000 0.00000
N1229843406 N1229843406  0 0        0.00000 0.00000 0.00000 0.00000 0.00000 0.00000 0.00000 0.00000 0.000 0.00000
N1229843403 N1229843403  0 0        0.00000 0.00000 0.00000 0.00000 0.00000 0.00000 0.00000 0.00000 0.000 0.00000
N1229843400 N1229843400  0 0        0.00000 0.00000 0.00000 0.00000 0.00000 0.00000 0.00000 0.00000 0.000 0.00000
N1229843394 N1229843394  0 0        0.00000 0.00000 0.00000 0.00000 0.00000 0.00000 0.00000 0.00000 0.000 0.00000
N1229842033 N1229842033  0 0        0.00000 0.00000 0.00000 0.00000 0.00000 0.00000 0.00000 0.00000 0.000 0.00000
N1229842036 N1229842036  0 0        0.00000 0.00000 0.00000 0.00000 0.00000 0.00000 0.00000 0.00000 0.000 0.00000
N1229842039 N1229842039  0 0        0.00000 0.00000 0.00000 0.00000 0.00000 0.00000 0.00000 0.00000 0.000 0.00000
N1229842042 N1229842042  0 0        0.00000 0.00000 0.00000 0.00000 0.00000 0.00000 0.00000 0.00000 0.000 0.00000
N1229842045 N1229842045  0 0        0.00000 0.00000 0.00000 0.00000 0.00000 0.00000 0.00000 0.00000 0.000 0.00000
N_ABS_31 N_ABS_31     0 0        0.00000 0.00000 0.00000 0.00000 0.00000 0.00000 0.00000 0.00000 0.000 0.00000
N_ABS_30 N_ABS_30     0 0        0.00000 0.00000 0.00000 0.00000 0.00000 0.00000 0.00000 0.00000 0.000 0.00000
N_ABS_29 N_ABS_29     0 0        0.00000 0.00000 0.00000 0.00000 0.00000 0.00000 0.00000 0.00000 0.000 0.00000
N_ADS_37 N_ADS_37     0 0        0.00000 0.00000 0.00000 0.00000 0.00000 0.00000 0.00000 0.00000 0.000 0.00000
NODE_ABS_13 NODE_ABS_13  0 0        0.00000 0.00000 0.00000 0.00000 0.00000 0.00000 0.00000 0.00000 0.000 0.00000
N-26     N-26         0 0        0.00000 0.00000 0.00000 0.00000 0.00000 0.00000 0.00000 0.00000 0.000 0.00000
N25      N25          0 0        0.00000 0.00000 0.00000 0.00000 0.00000 0.00000 0.00000 0.00000 0.000 0.00000
N-17     N-17         0 0        0.00000 0.00000 0.00000 0.00000 0.00000 0.00000 0.00000 0.00000 0.000 0.00000
N1229863265 N1229863265  0 0        0.00000 0.00000 0.00000 0.00000 0.00000 0.00000 0.00000 0.00000 0.000 0.00000
N1229863268 N1229863268  0 0        0.00000 0.00000 0.00000 0.00000 0.00000 0.00000 0.00000 0.00000 0.000 0.00000
N1229863271 N1229863271  0 0        0.00000 0.00000 0.00000 0.00000 0.00000 0.00000 0.00000 0.00000 0.000 0.00000
N1229863274 N1229863274  0 0        0.00000 0.00000 0.00000 0.00000 0.00000 0.00000 0.00000 0.00000 0.000 0.00000
N1229863277 N1229863277  0 0        0.00000 0.00000 0.00000 0.00000 0.00000 0.00000 0.00000 0.00000 0.000 0.00000
N1229862992 N1229862992  0 0        0.00000 0.00000 0.00000 0.00000 0.00000 0.00000 0.00000 0.00000 0.000 0.00000
N1229862995 N1229862995  0 0        0.00000 0.00000 0.00000 0.00000 0.00000 0.00000 0.00000 0.00000 0.000 0.00000
N1229862998 N1229862998  0 0        0.00000 0.00000 0.00000 0.00000 0.00000 0.00000 0.00000 0.00000 0.000 0.00000
N1229863001 N1229863001  0 0        0.00000 0.00000 0.00000 0.00000 0.00000 0.00000 0.00000 0.00000 0.000 0.00000
N1229863004 N1229863004  0 0        0.00000 0.00000 0.00000 0.00000 0.00000 0.00000 0.00000 0.00000 0.000 0.00000
N1229863007 N1229863007  0 0        0.00000 0.00000 0.00000 0.00000 0.00000 0.00000 0.00000 0.00000 0.000 0.00000
N1229861904 N1229861904  0 0        0.00000 0.00000 0.00000 0.00000 0.00000 0.00000 0.00000 0.00000 0.000 0.00000
N1229861907 N1229861907  0 0        0.00000 0.00000 0.00000 0.00000 0.00000 0.00000 0.00000 0.00000 0.000 0.00000
N1229861910 N1229861910  0 0        0.00000 0.00000 0.00000 0.00000 0.00000 0.00000 0.00000 0.00000 0.000 0.00000
N1229861913 N1229861913  0 0        0.00000 0.00000 0.00000 0.00000 0.00000 0.00000 0.00000 0.00000 0.000 0.00000
N1229861916 N1229861916  0 0        0.00000 0.00000 0.00000 0.00000 0.00000 0.00000 0.00000 0.00000 0.000 0.00000
N1229861919 N1229861919  0 0        0.00000 0.00000 0.00000 0.00000 0.00000 0.00000 0.00000 0.00000 0.000 0.00000
N1229861360 N1229861360  0 0        0.00000 0.00000 0.00000 0.00000 0.00000 0.00000 0.00000 0.00000 0.000 0.00000
N1229861363 N1229861363  0 0        0.00000 0.00000 0.00000 0.00000 0.00000 0.00000 0.00000 0.00000 0.000 0.00000
N1229861366 N1229861366  0 0        0.00000 0.00000 0.00000 0.00000 0.00000 0.00000 0.00000 0.00000 0.000 0.00000
N1229861369 N1229861369  0 0        0.00000 0.00000 0.00000 0.00000 0.00000 0.00000 0.00000 0.00000 0.000 0.00000
N1229861372 N1229861372  0 0        0.00000 0.00000 0.00000 0.00000 0.00000 0.00000 0.00000 0.00000 0.000 0.00000
N1229861088 N1229861088  0 0        0.00000 0.00000 0.00000 0.00000 0.00000 0.00000 0.00000 0.00000 0.000 0.00000
N1229860554 N1229860554  0 0        0.00000 0.00000 0.00000 0.00000 0.00000 0.00000 0.00000 0.00000 0.000 0.00000
N1229860557 N1229860557  0 0        0.00000 0.00000 0.00000 0.00000 0.00000 0.00000 0.00000 0.00000 0.000 0.00000
N1229860008 N1229860008  0 0        0.00000 0.00000 0.00000 0.00000 0.00000 0.00000 0.00000 0.00000 0.000 0.00000
N1229860005 N1229860005  0 0        0.00000 0.00000 0.00000 0.00000 0.00000 0.00000 0.00000 0.00000 0.000 0.00000
N1229860002 N1229860002  0 0        0.00000 0.00000 0.00000 0.00000 0.00000 0.00000 0.00000 0.00000 0.000 0.00000
N1229858925 N1229858925  0 0        0.00000 0.00000 0.00000 0.00000 0.00000 0.00000 0.00000 0.00000 0.000 0.00000
N1229858922 N1229858922  0 0        0.00000 0.00000 0.00000 0.00000 0.00000 0.00000 0.00000 0.00000 0.000 0.00000
N1229858919 N1229858919  0 0        0.00000 0.00000 0.00000 0.00000 0.00000 0.00000 0.00000 0.00000 0.000 0.00000
N1229858916 N1229858916  0 0        0.00000 0.00000 0.00000 0.00000 0.00000 0.00000 0.00000 0.00000 0.000 0.00000
N1229858913 N1229858913  0 0        0.00000 0.00000 0.00000 0.00000 0.00000 0.00000 0.00000 0.00000 0.000 0.00000
N1229858649 N1229858649  0 0        0.00000 0.00000 0.00000 0.00000 0.00000 0.00000 0.00000 0.00000 0.000 0.00000
N1229858646 N1229858646  0 0        0.00000 0.00000 0.00000 0.00000 0.00000 0.00000 0.00000 0.00000 0.000 0.00000
N1229858643 N1229858643  0 0        0.00000 0.00000 0.00000 0.00000 0.00000 0.00000 0.00000 0.00000 0.000 0.00000
N1229858640 N1229858640  0 0        0.00000 0.00000 0.00000 0.00000 0.00000 0.00000 0.00000 0.00000 0.000 0.00000
N1229858111 N1229858111  0 0        0.00000 0.00000 0.00000 0.00000 0.00000 0.00000 0.00000 0.00000 0.000 0.00000
N1229858108 N1229858108  0 0        0.00000 0.00000 0.00000 0.00000 0.00000 0.00000 0.00000 0.00000 0.000 0.00000
N1229858105 N1229858105  0 0        0.00000 0.00000 0.00000 0.00000 0.00000 0.00000 0.00000 0.00000 0.000 0.00000
N1229858102 N1229858102  0 0        0.00000 0.00000 0.00000 0.00000 0.00000 0.00000 0.00000 0.00000 0.000 0.00000
N1229858099 N1229858099  0 0        0.00000 0.00000 0.00000 0.00000 0.00000 0.00000 0.00000 0.00000 0.000 0.00000
N1229858096 N1229858096  0 0        0.00000 0.00000 0.00000 0.00000 0.00000 0.00000 0.00000 0.00000 0.000 0.00000
N1229857013 N1229857013  0 0        0.00000 0.00000 0.00000 0.00000 0.00000 0.00000 0.00000 0.00000 0.000 0.00000
N1229856736 N1229856736  0 0        0.00000 0.00000 0.00000 0.00000 0.00000 0.00000 0.00000 0.00000 0.000 0.00000
N1229856739 N1229856739  0 0        0.00000 0.00000 0.00000 0.00000 0.00000 0.00000 0.00000 0.00000 0.000 0.00000
N1229856742 N1229856742  0 0        0.00000 0.00000 0.00000 0.00000 0.00000 0.00000 0.00000 0.00000 0.000 0.00000
N1229856745 N1229856745  0 0        0.00000 0.00000 0.00000 0.00000 0.00000 0.00000 0.00000 0.00000 0.000 0.00000
N1229856748 N1229856748  0 0        0.00000 0.00000 0.00000 0.00000 0.00000 0.00000 0.00000 0.00000 0.000 0.00000
N1229856751 N1229856751  0 0        0.00000 0.00000 0.00000 0.00000 0.00000 0.00000 0.00000 0.00000 0.000 0.00000
N1229856464 N1229856464  0 0        0.00000 0.00000 0.00000 0.00000 0.00000 0.00000 0.00000 0.00000 0.000 0.00000
N1229855920 N1229855920  0 0        0.00000 0.00000 0.00000 0.00000 0.00000 0.00000 0.00000 0.00000 0.000 0.00000
N1229855923 N1229855923  0 0        0.00000 0.00000 0.00000 0.00000 0.00000 0.00000 0.00000 0.00000 0.000 0.00000
N1229855926 N1229855926  0 0        0.00000 0.00000 0.00000 0.00000 0.00000 0.00000 0.00000 0.00000 0.000 0.00000
N1229855929 N1229855929  0 0        0.00000 0.00000 0.00000 0.00000 0.00000 0.00000 0.00000 0.00000 0.000 0.00000
N1229855932 N1229855932  0 0        0.00000 0.00000 0.00000 0.00000 0.00000 0.00000 0.00000 0.00000 0.000 0.00000
N1229855935 N1229855935  0 0        0.00000 0.00000 0.00000 0.00000 0.00000 0.00000 0.00000 0.00000 0.000 0.00000
N1229843421 N1229843421  0 0        0.00000 0.00000 0.00000 0.00000 0.00000 0.00000 0.00000 0.00000 0.000 0.00000
N1229843418 N1229843418  0 0        0.00000 0.00000 0.00000 0.00000 0.00000 0.00000 0.00000 0.00000 0.000 0.00000
N1229843415 N1229843415  0 0        0.00000 0.00000 0.00000 0.00000 0.00000 0.00000 0.00000 0.00000 0.000 0.00000
N1229843412 N1229843412  0 0        0.00000 0.00000 0.00000 0.00000 0.00000 0.00000 0.00000 0.00000 0.000 0.00000
N1229843409 N1229843409  0 0        0.00000 0.00000 0.00000 0.00000 0.00000 0.00000 0.00000 0.00000 0.000 0.00000
N1229842048 N1229842048  0 0        0.00000 0.00000 0.00000 0.00000 0.00000 0.00000 0.00000 0.00000 0.000 0.00000
N1229842051 N1229842051  0 0        0.00000 0.00000 0.00000 0.00000 0.00000 0.00000 0.00000 0.00000 0.000 0.00000
N1229842054 N1229842054  0 0        0.00000 0.00000 0.00000 0.00000 0.00000 0.00000 0.00000 0.00000 0.000 0.00000
N1229842057 N1229842057  0 0        0.00000 0.00000 0.00000 0.00000 0.00000 0.00000 0.00000 0.00000 0.000 0.00000
N1229842060 N1229842060  0 0        0.00000 0.00000 0.00000 0.00000 0.00000 0.00000 0.00000 0.00000 0.000 0.00000
N1229842063 N1229842063  0 0        0.00000 0.00000 0.00000 0.00000 0.00000 0.00000 0.00000 0.00000 0.000 0.00000
NODE_ABS_35 NODE_ABS_35  0 0        0.00000 0.00000 0.00000 0.00000 0.00000 0.00000 0.00000 0.00000 0.000 0.00000
NODE_LRS_3 NODE_LRS_3   0 0        0.00000 0.00000 0.00000 0.00000 0.00000 0.00000 0.00000 0.00000 0.000 0.00000
DB_30    DB_30        0 0        0.00000 0.00000 0.00000 0.00000 0.00000 0.00000 0.00000 0.00000 0.000 0.00000
DB_28    DB_28        0 0        0.00000 0.00000 0.00000 0.00000 0.00000 0.00000 0.00000 0.00000 0.000 0.00000
N-25     N-25         0 0        0.00000 0.00000 0.00000 0.00000 0.00000 0.00000 0.00000 0.00000 0.000 0.00000
N1229864370 N1229864370  0 0        0.00000 0.00000 0.00000 0.00000 0.00000 0.00000 0.00000 0.00000 0.000 0.00000
N1229864373 N1229864373  0 0        0.00000 0.00000 0.00000 0.00000 0.00000 0.00000 0.00000 0.00000 0.000 0.00000
N1229863553 N1229863553  0 0        0.00000 0.00000 0.00000 0.00000 0.00000 0.00000 0.00000 0.00000 0.000 0.00000
N1229863556 N1229863556  0 0        0.00000 0.00000 0.00000 0.00000 0.00000 0.00000 0.00000 0.00000 0.000 0.00000
N1229863280 N1229863280  0 0        0.00000 0.00000 0.00000 0.00000 0.00000 0.00000 0.00000 0.00000 0.000 0.00000
N1229863283 N1229863283  0 0        0.00000 0.00000 0.00000 0.00000 0.00000 0.00000 0.00000 0.00000 0.000 0.00000
N1229863286 N1229863286  0 0        0.00000 0.00000 0.00000 0.00000 0.00000 0.00000 0.00000 0.00000 0.000 0.00000
N1229863289 N1229863289  0 0        0.00000 0.00000 0.00000 0.00000 0.00000 0.00000 0.00000 0.00000 0.000 0.00000
N1229863292 N1229863292  0 0        0.00000 0.00000 0.00000 0.00000 0.00000 0.00000 0.00000 0.00000 0.000 0.00000
N1229863295 N1229863295  0 0        0.00000 0.00000 0.00000 0.00000 0.00000 0.00000 0.00000 0.00000 0.000 0.00000
N1229863010 N1229863010  0 0        0.00000 0.00000 0.00000 0.00000 0.00000 0.00000 0.00000 0.00000 0.000 0.00000
N1229863013 N1229863013  0 0        0.00000 0.00000 0.00000 0.00000 0.00000 0.00000 0.00000 0.00000 0.000 0.00000
N1229863016 N1229863016  0 0        0.00000 0.00000 0.00000 0.00000 0.00000 0.00000 0.00000 0.00000 0.000 0.00000
N1229863019 N1229863019  0 0        0.00000 0.00000 0.00000 0.00000 0.00000 0.00000 0.00000 0.00000 0.000 0.00000
N1229863022 N1229863022  0 0        0.00000 0.00000 0.00000 0.00000 0.00000 0.00000 0.00000 0.00000 0.000 0.00000
N1229861922 N1229861922  0 0        0.00000 0.00000 0.00000 0.00000 0.00000 0.00000 0.00000 0.00000 0.000 0.00000
N1229861925 N1229861925  0 0        0.00000 0.00000 0.00000 0.00000 0.00000 0.00000 0.00000 0.00000 0.000 0.00000
N1229861928 N1229861928  0 0        0.00000 0.00000 0.00000 0.00000 0.00000 0.00000 0.00000 0.00000 0.000 0.00000
N1229861931 N1229861931  0 0        0.00000 0.00000 0.00000 0.00000 0.00000 0.00000 0.00000 0.00000 0.000 0.00000
N1229861934 N1229861934  0 0        0.00000 0.00000 0.00000 0.00000 0.00000 0.00000 0.00000 0.00000 0.000 0.00000
N1229860560 N1229860560  0 0        0.00000 0.00000 0.00000 0.00000 0.00000 0.00000 0.00000 0.00000 0.000 0.00000
N1229860563 N1229860563  0 0        0.00000 0.00000 0.00000 0.00000 0.00000 0.00000 0.00000 0.00000 0.000 0.00000
N1229860566 N1229860566  0 0        0.00000 0.00000 0.00000 0.00000 0.00000 0.00000 0.00000 0.00000 0.000 0.00000
N1229860569 N1229860569  0 0        0.00000 0.00000 0.00000 0.00000 0.00000 0.00000 0.00000 0.00000 0.000 0.00000
N1229860572 N1229860572  0 0        0.00000 0.00000 0.00000 0.00000 0.00000 0.00000 0.00000 0.00000 0.000 0.00000
N1229860575 N1229860575  0 0        0.00000 0.00000 0.00000 0.00000 0.00000 0.00000 0.00000 0.00000 0.000 0.00000
N1229860026 N1229860026  0 0        0.00000 0.00000 0.00000 0.00000 0.00000 0.00000 0.00000 0.00000 0.000 0.00000
N1229859747 N1229859747  0 0        0.00000 0.00000 0.00000 0.00000 0.00000 0.00000 0.00000 0.00000 0.000 0.00000
N1229859473 N1229859473  0 0        0.00000 0.00000 0.00000 0.00000 0.00000 0.00000 0.00000 0.00000 0.000 0.00000
N1229858943 N1229858943  0 0        0.00000 0.00000 0.00000 0.00000 0.00000 0.00000 0.00000 0.00000 0.000 0.00000
N1229858940 N1229858940  0 0        0.00000 0.00000 0.00000 0.00000 0.00000 0.00000 0.00000 0.00000 0.000 0.00000
N1229858937 N1229858937  0 0        0.00000 0.00000 0.00000 0.00000 0.00000 0.00000 0.00000 0.00000 0.000 0.00000
N1229858934 N1229858934  0 0        0.00000 0.00000 0.00000 0.00000 0.00000 0.00000 0.00000 0.00000 0.000 0.00000
N1229858931 N1229858931  0 0        0.00000 0.00000 0.00000 0.00000 0.00000 0.00000 0.00000 0.00000 0.000 0.00000
N1229858928 N1229858928  0 0        0.00000 0.00000 0.00000 0.00000 0.00000 0.00000 0.00000 0.00000 0.000 0.00000
N1229858670 N1229858670  0 0        0.00000 0.00000 0.00000 0.00000 0.00000 0.00000 0.00000 0.00000 0.000 0.00000
N1229858667 N1229858667  0 0        0.00000 0.00000 0.00000 0.00000 0.00000 0.00000 0.00000 0.00000 0.000 0.00000
N1229858664 N1229858664  0 0        0.00000 0.00000 0.00000 0.00000 0.00000 0.00000 0.00000 0.00000 0.000 0.00000
N1229858661 N1229858661  0 0        0.00000 0.00000 0.00000 0.00000 0.00000 0.00000 0.00000 0.00000 0.000 0.00000
N1229858126 N1229858126  0 0        0.00000 0.00000 0.00000 0.00000 0.00000 0.00000 0.00000 0.00000 0.000 0.00000
N1229858123 N1229858123  0 0        0.00000 0.00000 0.00000 0.00000 0.00000 0.00000 0.00000 0.00000 0.000 0.00000
N1229858120 N1229858120  0 0        0.00000 0.00000 0.00000 0.00000 0.00000 0.00000 0.00000 0.00000 0.000 0.00000
N1229858117 N1229858117  0 0        0.00000 0.00000 0.00000 0.00000 0.00000 0.00000 0.00000 0.00000 0.000 0.00000
N1229858114 N1229858114  0 0        0.00000 0.00000 0.00000 0.00000 0.00000 0.00000 0.00000 0.00000 0.000 0.00000
N1229856754 N1229856754  0 0        0.00000 0.00000 0.00000 0.00000 0.00000 0.00000 0.00000 0.00000 0.000 0.00000
N1229856757 N1229856757  0 0        0.00000 0.00000 0.00000 0.00000 0.00000 0.00000 0.00000 0.00000 0.000 0.00000
N1229856760 N1229856760  0 0        0.00000 0.00000 0.00000 0.00000 0.00000 0.00000 0.00000 0.00000 0.000 0.00000
N1229856763 N1229856763  0 0        0.00000 0.00000 0.00000 0.00000 0.00000 0.00000 0.00000 0.00000 0.000 0.00000
N1229856766 N1229856766  0 0        0.00000 0.00000 0.00000 0.00000 0.00000 0.00000 0.00000 0.00000 0.000 0.00000
N1229856208 N1229856208  0 0        0.00000 0.00000 0.00000 0.00000 0.00000 0.00000 0.00000 0.00000 0.000 0.00000
N1229855938 N1229855938  0 0        0.00000 0.00000 0.00000 0.00000 0.00000 0.00000 0.00000 0.00000 0.000 0.00000
N1229855941 N1229855941  0 0        0.00000 0.00000 0.00000 0.00000 0.00000 0.00000 0.00000 0.00000 0.000 0.00000
N1229855944 N1229855944  0 0        0.00000 0.00000 0.00000 0.00000 0.00000 0.00000 0.00000 0.00000 0.000 0.00000
N1229855947 N1229855947  0 0        0.00000 0.00000 0.00000 0.00000 0.00000 0.00000 0.00000 0.00000 0.000 0.00000
N1229855950 N1229855950  0 0        0.00000 0.00000 0.00000 0.00000 0.00000 0.00000 0.00000 0.00000 0.000 0.00000
N1229855123 N1229855123  0 0        0.00000 0.00000 0.00000 0.00000 0.00000 0.00000 0.00000 0.00000 0.000 0.00000
N1229842066 N1229842066  0 0        0.00000 0.00000 0.00000 0.00000 0.00000 0.00000 0.00000 0.00000 0.000 0.00000
N1229842069 N1229842069  0 0        0.00000 0.00000 0.00000 0.00000 0.00000 0.00000 0.00000 0.00000 0.000 0.00000
N1229842072 N1229842072  0 0        0.00000 0.00000 0.00000 0.00000 0.00000 0.00000 0.00000 0.00000 0.000 0.00000
N1229842075 N1229842075  0 0        0.00000 0.00000 0.00000 0.00000 0.00000 0.00000 0.00000 0.00000 0.000 0.00000
N1229842078 N1229842078  0 0        0.00000 0.00000 0.00000 0.00000 0.00000 0.00000 0.00000 0.00000 0.000 0.00000
N1229841529 N1229841529  0 0        0.00000 0.00000 0.00000 0.00000 0.00000 0.00000 0.00000 0.00000 0.000 0.00000
NODE_ABS_29 NODE_ABS_29  0 0        0.00000 0.00000 0.00000 0.00000 0.00000 0.00000 0.00000 0.00000 0.000 0.00000
N39      N39          0 0        0.00000 0.00000 0.00000 0.00000 0.00000 0.00000 0.00000 0.00000 0.000 0.00000
N-39     N-39         0 0        0.00000 0.00000 0.00000 0.00000 0.00000 0.00000 0.00000 0.00000 0.000 0.00000
N1229863298 N1229863298  0 0        0.00000 0.00000 0.00000 0.00000 0.00000 0.00000 0.00000 0.00000 0.000 0.00000
N1229863301 N1229863301  0 0        0.00000 0.00000 0.00000 0.00000 0.00000 0.00000 0.00000 0.00000 0.000 0.00000
N1229863304 N1229863304  0 0        0.00000 0.00000 0.00000 0.00000 0.00000 0.00000 0.00000 0.00000 0.000 0.00000
N1229863307 N1229863307  0 0        0.00000 0.00000 0.00000 0.00000 0.00000 0.00000 0.00000 0.00000 0.000 0.00000
N1229863310 N1229863310  0 0        0.00000 0.00000 0.00000 0.00000 0.00000 0.00000 0.00000 0.00000 0.000 0.00000
N1229863025 N1229863025  0 0        0.00000 0.00000 0.00000 0.00000 0.00000 0.00000 0.00000 0.00000 0.000 0.00000
N1229863028 N1229863028  0 0        0.00000 0.00000 0.00000 0.00000 0.00000 0.00000 0.00000 0.00000 0.000 0.00000
N1229863031 N1229863031  0 0        0.00000 0.00000 0.00000 0.00000 0.00000 0.00000 0.00000 0.00000 0.000 0.00000
N1229863034 N1229863034  0 0        0.00000 0.00000 0.00000 0.00000 0.00000 0.00000 0.00000 0.00000 0.000 0.00000
N1229863037 N1229863037  0 0        0.00000 0.00000 0.00000 0.00000 0.00000 0.00000 0.00000 0.00000 0.000 0.00000
N1229861937 N1229861937  0 0        0.00000 0.00000 0.00000 0.00000 0.00000 0.00000 0.00000 0.00000 0.000 0.00000
N1229861940 N1229861940  0 0        0.00000 0.00000 0.00000 0.00000 0.00000 0.00000 0.00000 0.00000 0.000 0.00000
N1229861943 N1229861943  0 0        0.00000 0.00000 0.00000 0.00000 0.00000 0.00000 0.00000 0.00000 0.000 0.00000
N1229861946 N1229861946  0 0        0.00000 0.00000 0.00000 0.00000 0.00000 0.00000 0.00000 0.00000 0.000 0.00000
N1229861949 N1229861949  0 0        0.00000 0.00000 0.00000 0.00000 0.00000 0.00000 0.00000 0.00000 0.000 0.00000
N1229860858 N1229860858  0 0        0.00000 0.00000 0.00000 0.00000 0.00000 0.00000 0.00000 0.00000 0.000 0.00000
N1229860578 N1229860578  0 0        0.00000 0.00000 0.00000 0.00000 0.00000 0.00000 0.00000 0.00000 0.000 0.00000
N1229860581 N1229860581  0 0        0.00000 0.00000 0.00000 0.00000 0.00000 0.00000 0.00000 0.00000 0.000 0.00000
N1229858958 N1229858958  0 0        0.00000 0.00000 0.00000 0.00000 0.00000 0.00000 0.00000 0.00000 0.000 0.00000
N1229858955 N1229858955  0 0        0.00000 0.00000 0.00000 0.00000 0.00000 0.00000 0.00000 0.00000 0.000 0.00000
N1229858952 N1229858952  0 0        0.00000 0.00000 0.00000 0.00000 0.00000 0.00000 0.00000 0.00000 0.000 0.00000
N1229858949 N1229858949  0 0        0.00000 0.00000 0.00000 0.00000 0.00000 0.00000 0.00000 0.00000 0.000 0.00000
N1229858946 N1229858946  0 0        0.00000 0.00000 0.00000 0.00000 0.00000 0.00000 0.00000 0.00000 0.000 0.00000
N1229858679 N1229858679  0 0        0.00000 0.00000 0.00000 0.00000 0.00000 0.00000 0.00000 0.00000 0.000 0.00000
N1229858676 N1229858676  0 0        0.00000 0.00000 0.00000 0.00000 0.00000 0.00000 0.00000 0.00000 0.000 0.00000
N1229858673 N1229858673  0 0        0.00000 0.00000 0.00000 0.00000 0.00000 0.00000 0.00000 0.00000 0.000 0.00000
N1229858129 N1229858129  0 0        0.00000 0.00000 0.00000 0.00000 0.00000 0.00000 0.00000 0.00000 0.000 0.00000
N1229857319 N1229857319  0 0        0.00000 0.00000 0.00000 0.00000 0.00000 0.00000 0.00000 0.00000 0.000 0.00000
N1229857046 N1229857046  0 0        0.00000 0.00000 0.00000 0.00000 0.00000 0.00000 0.00000 0.00000 0.000 0.00000
N1229856511 N1229856511  0 0        0.00000 0.00000 0.00000 0.00000 0.00000 0.00000 0.00000 0.00000 0.000 0.00000
N1229855953 N1229855953  0 0        0.00000 0.00000 0.00000 0.00000 0.00000 0.00000 0.00000 0.00000 0.000 0.00000
N1229855956 N1229855956  0 0        0.00000 0.00000 0.00000 0.00000 0.00000 0.00000 0.00000 0.00000 0.000 0.00000
N1229855959 N1229855959  0 0        0.00000 0.00000 0.00000 0.00000 0.00000 0.00000 0.00000 0.00000 0.000 0.00000
N1229855962 N1229855962  0 0        0.00000 0.00000 0.00000 0.00000 0.00000 0.00000 0.00000 0.00000 0.000 0.00000
N1229855965 N1229855965  0 0        0.00000 0.00000 0.00000 0.00000 0.00000 0.00000 0.00000 0.00000 0.000 0.00000
N1229855139 N1229855139  0 0        0.00000 0.00000 0.00000 0.00000 0.00000 0.00000 0.00000 0.00000 0.000 0.00000
N1229842081 N1229842081  0 0        0.00000 0.00000 0.00000 0.00000 0.00000 0.00000 0.00000 0.00000 0.000 0.00000
N1229842084 N1229842084  0 0        0.00000 0.00000 0.00000 0.00000 0.00000 0.00000 0.00000 0.00000 0.000 0.00000
N1229842087 N1229842087  0 0        0.00000 0.00000 0.00000 0.00000 0.00000 0.00000 0.00000 0.00000 0.000 0.00000
N1229842090 N1229842090  0 0        0.00000 0.00000 0.00000 0.00000 0.00000 0.00000 0.00000 0.00000 0.000 0.00000
N1229842093 N1229842093  0 0        0.00000 0.00000 0.00000 0.00000 0.00000 0.00000 0.00000 0.00000 0.000 0.00000
N1229841813 N1229841813  0 0        0.00000 0.00000 0.00000 0.00000 0.00000 0.00000 0.00000 0.00000 0.000 0.00000
N1229841546 N1229841546  0 0        0.00000 0.00000 0.00000 0.00000 0.00000 0.00000 0.00000 0.00000 0.000 0.00000
NODE_ADS_12 NODE_ADS_12  0 0        0.00000 0.00000 0.00000 0.00000 0.00000 0.00000 0.00000 0.00000 0.000 0.00000
NODE_ADS_8 NODE_ADS_8   0 0        0.00000 0.00000 0.00000 0.00000 0.00000 0.00000 0.00000 0.00000 0.000 0.00000
N-8      N-8          0 0        0.00000 0.00000 0.00000 0.00000 0.00000 0.00000 0.00000 0.00000 0.000 0.00000
N8       N8           0 0        0.00000 0.00000 0.00000 0.00000 0.00000 0.00000 0.00000 0.00000 0.000 0.00000
N16      N16          0 0        0.00000 0.00000 0.00000 0.00000 0.00000 0.00000 0.00000 0.00000 0.000 0.00000
N1229863313 N1229863313  0 0        0.00000 0.00000 0.00000 0.00000 0.00000 0.00000 0.00000 0.00000 0.000 0.00000
N1229863316 N1229863316  0 0        0.00000 0.00000 0.00000 0.00000 0.00000 0.00000 0.00000 0.00000 0.000 0.00000
N1229863319 N1229863319  0 0        0.00000 0.00000 0.00000 0.00000 0.00000 0.00000 0.00000 0.00000 0.000 0.00000
N1229863322 N1229863322  0 0        0.00000 0.00000 0.00000 0.00000 0.00000 0.00000 0.00000 0.00000 0.000 0.00000
N1229863325 N1229863325  0 0        0.00000 0.00000 0.00000 0.00000 0.00000 0.00000 0.00000 0.00000 0.000 0.00000
N1229863040 N1229863040  0 0        0.00000 0.00000 0.00000 0.00000 0.00000 0.00000 0.00000 0.00000 0.000 0.00000
N1229863043 N1229863043  0 0        0.00000 0.00000 0.00000 0.00000 0.00000 0.00000 0.00000 0.00000 0.000 0.00000
N1229863046 N1229863046  0 0        0.00000 0.00000 0.00000 0.00000 0.00000 0.00000 0.00000 0.00000 0.000 0.00000
N1229863049 N1229863049  0 0        0.00000 0.00000 0.00000 0.00000 0.00000 0.00000 0.00000 0.00000 0.000 0.00000
N1229863052 N1229863052  0 0        0.00000 0.00000 0.00000 0.00000 0.00000 0.00000 0.00000 0.00000 0.000 0.00000
N1229863055 N1229863055  0 0        0.00000 0.00000 0.00000 0.00000 0.00000 0.00000 0.00000 0.00000 0.000 0.00000
N1229861952 N1229861952  0 0        0.00000 0.00000 0.00000 0.00000 0.00000 0.00000 0.00000 0.00000 0.000 0.00000
N1229861955 N1229861955  0 0        0.00000 0.00000 0.00000 0.00000 0.00000 0.00000 0.00000 0.00000 0.000 0.00000
N1229861958 N1229861958  0 0        0.00000 0.00000 0.00000 0.00000 0.00000 0.00000 0.00000 0.00000 0.000 0.00000
N1229861961 N1229861961  0 0        0.00000 0.00000 0.00000 0.00000 0.00000 0.00000 0.00000 0.00000 0.000 0.00000
N1229861964 N1229861964  0 0        0.00000 0.00000 0.00000 0.00000 0.00000 0.00000 0.00000 0.00000 0.000 0.00000
N1229861967 N1229861967  0 0        0.00000 0.00000 0.00000 0.00000 0.00000 0.00000 0.00000 0.00000 0.000 0.00000
N1229860869 N1229860869  0 0        0.00000 0.00000 0.00000 0.00000 0.00000 0.00000 0.00000 0.00000 0.000 0.00000
N1229860333 N1229860333  0 0        0.00000 0.00000 0.00000 0.00000 0.00000 0.00000 0.00000 0.00000 0.000 0.00000
N1229858970 N1229858970  0 0        0.00000 0.00000 0.00000 0.00000 0.00000 0.00000 0.00000 0.00000 0.000 0.00000
N1229858967 N1229858967  0 0        0.00000 0.00000 0.00000 0.00000 0.00000 0.00000 0.00000 0.00000 0.000 0.00000
N1229858964 N1229858964  0 0        0.00000 0.00000 0.00000 0.00000 0.00000 0.00000 0.00000 0.00000 0.000 0.00000
N1229858961 N1229858961  0 0        0.00000 0.00000 0.00000 0.00000 0.00000 0.00000 0.00000 0.00000 0.000 0.00000
N1229858147 N1229858147  0 0        0.00000 0.00000 0.00000 0.00000 0.00000 0.00000 0.00000 0.00000 0.000 0.00000
N1229857601 N1229857601  0 0        0.00000 0.00000 0.00000 0.00000 0.00000 0.00000 0.00000 0.00000 0.000 0.00000
N1229857059 N1229857059  0 0        0.00000 0.00000 0.00000 0.00000 0.00000 0.00000 0.00000 0.00000 0.000 0.00000
N1229857062 N1229857062  0 0        0.00000 0.00000 0.00000 0.00000 0.00000 0.00000 0.00000 0.00000 0.000 0.00000
N1229857065 N1229857065  0 0        0.00000 0.00000 0.00000 0.00000 0.00000 0.00000 0.00000 0.00000 0.000 0.00000
N1229857068 N1229857068  0 0        0.00000 0.00000 0.00000 0.00000 0.00000 0.00000 0.00000 0.00000 0.000 0.00000
N1229857071 N1229857071  0 0        0.00000 0.00000 0.00000 0.00000 0.00000 0.00000 0.00000 0.00000 0.000 0.00000
N1229856784 N1229856784  0 0        0.00000 0.00000 0.00000 0.00000 0.00000 0.00000 0.00000 0.00000 0.000 0.00000
N1229856514 N1229856514  0 0        0.00000 0.00000 0.00000 0.00000 0.00000 0.00000 0.00000 0.00000 0.000 0.00000
N1229855968 N1229855968  0 0        0.00000 0.00000 0.00000 0.00000 0.00000 0.00000 0.00000 0.00000 0.000 0.00000
N1229855971 N1229855971  0 0        0.00000 0.00000 0.00000 0.00000 0.00000 0.00000 0.00000 0.00000 0.000 0.00000
N1229855974 N1229855974  0 0        0.00000 0.00000 0.00000 0.00000 0.00000 0.00000 0.00000 0.00000 0.000 0.00000
N1229855977 N1229855977  0 0        0.00000 0.00000 0.00000 0.00000 0.00000 0.00000 0.00000 0.00000 0.000 0.00000
N1229855980 N1229855980  0 0        0.00000 0.00000 0.00000 0.00000 0.00000 0.00000 0.00000 0.00000 0.000 0.00000
N1229855983 N1229855983  0 0        0.00000 0.00000 0.00000 0.00000 0.00000 0.00000 0.00000 0.00000 0.000 0.00000
N1229855167 N1229855167  0 0        0.00000 0.00000 0.00000 0.00000 0.00000 0.00000 0.00000 0.00000 0.000 0.00000
N1229855164 N1229855164  0 0        0.00000 0.00000 0.00000 0.00000 0.00000 0.00000 0.00000 0.00000 0.000 0.00000
N1229855161 N1229855161  0 0        0.00000 0.00000 0.00000 0.00000 0.00000 0.00000 0.00000 0.00000 0.000 0.00000
N1229855158 N1229855158  0 0        0.00000 0.00000 0.00000 0.00000 0.00000 0.00000 0.00000 0.00000 0.000 0.00000
N1229855155 N1229855155  0 0        0.00000 0.00000 0.00000 0.00000 0.00000 0.00000 0.00000 0.00000 0.000 0.00000
N1229842926 N1229842926  0 0        0.00000 0.00000 0.00000 0.00000 0.00000 0.00000 0.00000 0.00000 0.000 0.00000
N1229842923 N1229842923  0 0        0.00000 0.00000 0.00000 0.00000 0.00000 0.00000 0.00000 0.00000 0.000 0.00000
N1229842096 N1229842096  0 0        0.00000 0.00000 0.00000 0.00000 0.00000 0.00000 0.00000 0.00000 0.000 0.00000
N1229842099 N1229842099  0 0        0.00000 0.00000 0.00000 0.00000 0.00000 0.00000 0.00000 0.00000 0.000 0.00000
N1229842102 N1229842102  0 0        0.00000 0.00000 0.00000 0.00000 0.00000 0.00000 0.00000 0.00000 0.000 0.00000
N1229842105 N1229842105  0 0        0.00000 0.00000 0.00000 0.00000 0.00000 0.00000 0.00000 0.00000 0.000 0.00000
N1229842108 N1229842108  0 0        0.00000 0.00000 0.00000 0.00000 0.00000 0.00000 0.00000 0.00000 0.000 0.00000
N1229842111 N1229842111  0 0        0.00000 0.00000 0.00000 0.00000 0.00000 0.00000 0.00000 0.00000 0.000 0.00000
N1229841826 N1229841826  0 0        0.00000 0.00000 0.00000 0.00000 0.00000 0.00000 0.00000 0.00000 0.000 0.00000
N1229841829 N1229841829  0 0        0.00000 0.00000 0.00000 0.00000 0.00000 0.00000 0.00000 0.00000 0.000 0.00000
N1229841832 N1229841832  0 0        0.00000 0.00000 0.00000 0.00000 0.00000 0.00000 0.00000 0.00000 0.000 0.00000
N1229841555 N1229841555  0 0        0.00000 0.00000 0.00000 0.00000 0.00000 0.00000 0.00000 0.00000 0.000 0.00000
N1229841558 N1229841558  0 0        0.00000 0.00000 0.00000 0.00000 0.00000 0.00000 0.00000 0.00000 0.000 0.00000
N1229841561 N1229841561  0 0        0.00000 0.00000 0.00000 0.00000 0.00000 0.00000 0.00000 0.00000 0.000 0.00000
N1229841564 N1229841564  0 0        0.00000 0.00000 0.00000 0.00000 0.00000 0.00000 0.00000 0.00000 0.000 0.00000
N1229841567 N1229841567  0 0        0.00000 0.00000 0.00000 0.00000 0.00000 0.00000 0.00000 0.00000 0.000 0.00000
NODE_ADS_20 NODE_ADS_20  0 0        0.00000 0.00000 0.00000 0.00000 0.00000 0.00000 0.00000 0.00000 0.000 0.00000
NODE_ADS_16 NODE_ADS_16  0 0        0.00000 0.00000 0.00000 0.00000 0.00000 0.00000 0.00000 0.00000 0.000 0.00000
N_PS_106 N_PS_106     0 0        0.00000 0.00000 0.00000 0.00000 0.00000 0.00000 0.00000 0.00000 0.000 0.00000
N-40     N-40         0 0        0.00000 0.00000 0.00000 0.00000 0.00000 0.00000 0.00000 0.00000 0.000 0.00000
N40      N40          0 0        0.00000 0.00000 0.00000 0.00000 0.00000 0.00000 0.00000 0.00000 0.000 0.00000
N-16     N-16         0 0        0.00000 0.00000 0.00000 0.00000 0.00000 0.00000 0.00000 0.00000 0.000 0.00000
N1229863328 N1229863328  0 0        0.00000 0.00000 0.00000 0.00000 0.00000 0.00000 0.00000 0.00000 0.000 0.00000
N1229863331 N1229863331  0 0        0.00000 0.00000 0.00000 0.00000 0.00000 0.00000 0.00000 0.00000 0.000 0.00000
N1229863334 N1229863334  0 0        0.00000 0.00000 0.00000 0.00000 0.00000 0.00000 0.00000 0.00000 0.000 0.00000
N1229863337 N1229863337  0 0        0.00000 0.00000 0.00000 0.00000 0.00000 0.00000 0.00000 0.00000 0.000 0.00000
N1229863340 N1229863340  0 0        0.00000 0.00000 0.00000 0.00000 0.00000 0.00000 0.00000 0.00000 0.000 0.00000
N1229863343 N1229863343  0 0        0.00000 0.00000 0.00000 0.00000 0.00000 0.00000 0.00000 0.00000 0.000 0.00000
N1229863058 N1229863058  0 0        0.00000 0.00000 0.00000 0.00000 0.00000 0.00000 0.00000 0.00000 0.000 0.00000
N1229863061 N1229863061  0 0        0.00000 0.00000 0.00000 0.00000 0.00000 0.00000 0.00000 0.00000 0.000 0.00000
N1229863064 N1229863064  0 0        0.00000 0.00000 0.00000 0.00000 0.00000 0.00000 0.00000 0.00000 0.000 0.00000
N1229863067 N1229863067  0 0        0.00000 0.00000 0.00000 0.00000 0.00000 0.00000 0.00000 0.00000 0.000 0.00000
N1229863070 N1229863070  0 0        0.00000 0.00000 0.00000 0.00000 0.00000 0.00000 0.00000 0.00000 0.000 0.00000
N1229862516 N1229862516  0 0        0.00000 0.00000 0.00000 0.00000 0.00000 0.00000 0.00000 0.00000 0.000 0.00000
N1229862519 N1229862519  0 0        0.00000 0.00000 0.00000 0.00000 0.00000 0.00000 0.00000 0.00000 0.000 0.00000
N1229862522 N1229862522  0 0        0.00000 0.00000 0.00000 0.00000 0.00000 0.00000 0.00000 0.00000 0.000 0.00000
N1229862525 N1229862525  0 0        0.00000 0.00000 0.00000 0.00000 0.00000 0.00000 0.00000 0.00000 0.000 0.00000
N1229861970 N1229861970  0 0        0.00000 0.00000 0.00000 0.00000 0.00000 0.00000 0.00000 0.00000 0.000 0.00000
N1229861973 N1229861973  0 0        0.00000 0.00000 0.00000 0.00000 0.00000 0.00000 0.00000 0.00000 0.000 0.00000
N1229861976 N1229861976  0 0        0.00000 0.00000 0.00000 0.00000 0.00000 0.00000 0.00000 0.00000 0.000 0.00000
N1229861979 N1229861979  0 0        0.00000 0.00000 0.00000 0.00000 0.00000 0.00000 0.00000 0.00000 0.000 0.00000
N1229861982 N1229861982  0 0        0.00000 0.00000 0.00000 0.00000 0.00000 0.00000 0.00000 0.00000 0.000 0.00000
N1229860882 N1229860882  0 0        0.00000 0.00000 0.00000 0.00000 0.00000 0.00000 0.00000 0.00000 0.000 0.00000
N1229860336 N1229860336  0 0        0.00000 0.00000 0.00000 0.00000 0.00000 0.00000 0.00000 0.00000 0.000 0.00000
N1229860339 N1229860339  0 0        0.00000 0.00000 0.00000 0.00000 0.00000 0.00000 0.00000 0.00000 0.000 0.00000
N1229860342 N1229860342  0 0        0.00000 0.00000 0.00000 0.00000 0.00000 0.00000 0.00000 0.00000 0.000 0.00000
N1229860345 N1229860345  0 0        0.00000 0.00000 0.00000 0.00000 0.00000 0.00000 0.00000 0.00000 0.000 0.00000
N1229860348 N1229860348  0 0        0.00000 0.00000 0.00000 0.00000 0.00000 0.00000 0.00000 0.00000 0.000 0.00000
N1229860351 N1229860351  0 0        0.00000 0.00000 0.00000 0.00000 0.00000 0.00000 0.00000 0.00000 0.000 0.00000
N1229859526 N1229859526  0 0        0.00000 0.00000 0.00000 0.00000 0.00000 0.00000 0.00000 0.00000 0.000 0.00000
N1229858988 N1229858988  0 0        0.00000 0.00000 0.00000 0.00000 0.00000 0.00000 0.00000 0.00000 0.000 0.00000
N1229858985 N1229858985  0 0        0.00000 0.00000 0.00000 0.00000 0.00000 0.00000 0.00000 0.00000 0.000 0.00000
N1229858982 N1229858982  0 0        0.00000 0.00000 0.00000 0.00000 0.00000 0.00000 0.00000 0.00000 0.000 0.00000
N1229858979 N1229858979  0 0        0.00000 0.00000 0.00000 0.00000 0.00000 0.00000 0.00000 0.00000 0.000 0.00000
N1229858976 N1229858976  0 0        0.00000 0.00000 0.00000 0.00000 0.00000 0.00000 0.00000 0.00000 0.000 0.00000
N1229858707 N1229858707  0 0        0.00000 0.00000 0.00000 0.00000 0.00000 0.00000 0.00000 0.00000 0.000 0.00000
N1229857357 N1229857357  0 0        0.00000 0.00000 0.00000 0.00000 0.00000 0.00000 0.00000 0.00000 0.000 0.00000
N1229857354 N1229857354  0 0        0.00000 0.00000 0.00000 0.00000 0.00000 0.00000 0.00000 0.00000 0.000 0.00000
N1229857351 N1229857351  0 0        0.00000 0.00000 0.00000 0.00000 0.00000 0.00000 0.00000 0.00000 0.000 0.00000
N1229857348 N1229857348  0 0        0.00000 0.00000 0.00000 0.00000 0.00000 0.00000 0.00000 0.00000 0.000 0.00000
N1229857345 N1229857345  0 0        0.00000 0.00000 0.00000 0.00000 0.00000 0.00000 0.00000 0.00000 0.000 0.00000
N1229857074 N1229857074  0 0        0.00000 0.00000 0.00000 0.00000 0.00000 0.00000 0.00000 0.00000 0.000 0.00000
N1229857077 N1229857077  0 0        0.00000 0.00000 0.00000 0.00000 0.00000 0.00000 0.00000 0.00000 0.000 0.00000
N1229857080 N1229857080  0 0        0.00000 0.00000 0.00000 0.00000 0.00000 0.00000 0.00000 0.00000 0.000 0.00000
N1229857083 N1229857083  0 0        0.00000 0.00000 0.00000 0.00000 0.00000 0.00000 0.00000 0.00000 0.000 0.00000
N1229857086 N1229857086  0 0        0.00000 0.00000 0.00000 0.00000 0.00000 0.00000 0.00000 0.00000 0.000 0.00000
N1229856538 N1229856538  0 0        0.00000 0.00000 0.00000 0.00000 0.00000 0.00000 0.00000 0.00000 0.000 0.00000
N1229856541 N1229856541  0 0        0.00000 0.00000 0.00000 0.00000 0.00000 0.00000 0.00000 0.00000 0.000 0.00000
N1229856270 N1229856270  0 0        0.00000 0.00000 0.00000 0.00000 0.00000 0.00000 0.00000 0.00000 0.000 0.00000
N1229855986 N1229855986  0 0        0.00000 0.00000 0.00000 0.00000 0.00000 0.00000 0.00000 0.00000 0.000 0.00000
N1229855182 N1229855182  0 0        0.00000 0.00000 0.00000 0.00000 0.00000 0.00000 0.00000 0.00000 0.000 0.00000
N1229855179 N1229855179  0 0        0.00000 0.00000 0.00000 0.00000 0.00000 0.00000 0.00000 0.00000 0.000 0.00000
N1229855176 N1229855176  0 0        0.00000 0.00000 0.00000 0.00000 0.00000 0.00000 0.00000 0.00000 0.000 0.00000
N1229855173 N1229855173  0 0        0.00000 0.00000 0.00000 0.00000 0.00000 0.00000 0.00000 0.00000 0.000 0.00000
N1229855170 N1229855170  0 0        0.00000 0.00000 0.00000 0.00000 0.00000 0.00000 0.00000 0.00000 0.000 0.00000
N1229843212 N1229843212  0 0        0.00000 0.00000 0.00000 0.00000 0.00000 0.00000 0.00000 0.00000 0.000 0.00000
N1229842941 N1229842941  0 0        0.00000 0.00000 0.00000 0.00000 0.00000 0.00000 0.00000 0.00000 0.000 0.00000
N1229842938 N1229842938  0 0        0.00000 0.00000 0.00000 0.00000 0.00000 0.00000 0.00000 0.00000 0.000 0.00000
N1229842935 N1229842935  0 0        0.00000 0.00000 0.00000 0.00000 0.00000 0.00000 0.00000 0.00000 0.000 0.00000
N1229842932 N1229842932  0 0        0.00000 0.00000 0.00000 0.00000 0.00000 0.00000 0.00000 0.00000 0.000 0.00000
N1229842929 N1229842929  0 0        0.00000 0.00000 0.00000 0.00000 0.00000 0.00000 0.00000 0.00000 0.000 0.00000
N1229842388 N1229842388  0 0        0.00000 0.00000 0.00000 0.00000 0.00000 0.00000 0.00000 0.00000 0.000 0.00000
N1229842391 N1229842391  0 0        0.00000 0.00000 0.00000 0.00000 0.00000 0.00000 0.00000 0.00000 0.000 0.00000
N1229842114 N1229842114  0 0        0.00000 0.00000 0.00000 0.00000 0.00000 0.00000 0.00000 0.00000 0.000 0.00000
N1229842117 N1229842117  0 0        0.00000 0.00000 0.00000 0.00000 0.00000 0.00000 0.00000 0.00000 0.000 0.00000
N1229842120 N1229842120  0 0        0.00000 0.00000 0.00000 0.00000 0.00000 0.00000 0.00000 0.00000 0.000 0.00000
N1229842123 N1229842123  0 0        0.00000 0.00000 0.00000 0.00000 0.00000 0.00000 0.00000 0.00000 0.000 0.00000
N1229842126 N1229842126  0 0        0.00000 0.00000 0.00000 0.00000 0.00000 0.00000 0.00000 0.00000 0.000 0.00000
N1229841570 N1229841570  0 0        0.00000 0.00000 0.00000 0.00000 0.00000 0.00000 0.00000 0.00000 0.000 0.00000
N1229841573 N1229841573  0 0        0.00000 0.00000 0.00000 0.00000 0.00000 0.00000 0.00000 0.00000 0.000 0.00000
N1229841576 N1229841576  0 0        0.00000 0.00000 0.00000 0.00000 0.00000 0.00000 0.00000 0.00000 0.000 0.00000
N1229841579 N1229841579  0 0        0.00000 0.00000 0.00000 0.00000 0.00000 0.00000 0.00000 0.00000 0.000 0.00000
N1229863622 N1229863622  0 0        0.00000 0.00000 0.00000 0.00000 0.00000 0.00000 0.00000 0.00000 0.000 0.00000
N1229863346 N1229863346  0 0        0.00000 0.00000 0.00000 0.00000 0.00000 0.00000 0.00000 0.00000 0.000 0.00000
N1229863349 N1229863349  0 0        0.00000 0.00000 0.00000 0.00000 0.00000 0.00000 0.00000 0.00000 0.000 0.00000
N1229863352 N1229863352  0 0        0.00000 0.00000 0.00000 0.00000 0.00000 0.00000 0.00000 0.00000 0.000 0.00000
N1229863355 N1229863355  0 0        0.00000 0.00000 0.00000 0.00000 0.00000 0.00000 0.00000 0.00000 0.000 0.00000
N1229863358 N1229863358  0 0        0.00000 0.00000 0.00000 0.00000 0.00000 0.00000 0.00000 0.00000 0.000 0.00000
N1229863073 N1229863073  0 0        0.00000 0.00000 0.00000 0.00000 0.00000 0.00000 0.00000 0.00000 0.000 0.00000
N1229863076 N1229863076  0 0        0.00000 0.00000 0.00000 0.00000 0.00000 0.00000 0.00000 0.00000 0.000 0.00000
N1229863079 N1229863079  0 0        0.00000 0.00000 0.00000 0.00000 0.00000 0.00000 0.00000 0.00000 0.000 0.00000
N1229863082 N1229863082  0 0        0.00000 0.00000 0.00000 0.00000 0.00000 0.00000 0.00000 0.00000 0.000 0.00000
N1229863085 N1229863085  0 0        0.00000 0.00000 0.00000 0.00000 0.00000 0.00000 0.00000 0.00000 0.000 0.00000
N1229862528 N1229862528  0 0        0.00000 0.00000 0.00000 0.00000 0.00000 0.00000 0.00000 0.00000 0.000 0.00000
N1229862531 N1229862531  0 0        0.00000 0.00000 0.00000 0.00000 0.00000 0.00000 0.00000 0.00000 0.000 0.00000
N1229862534 N1229862534  0 0        0.00000 0.00000 0.00000 0.00000 0.00000 0.00000 0.00000 0.00000 0.000 0.00000
N1229862537 N1229862537  0 0        0.00000 0.00000 0.00000 0.00000 0.00000 0.00000 0.00000 0.00000 0.000 0.00000
N1229862540 N1229862540  0 0        0.00000 0.00000 0.00000 0.00000 0.00000 0.00000 0.00000 0.00000 0.000 0.00000
N1229862543 N1229862543  0 0        0.00000 0.00000 0.00000 0.00000 0.00000 0.00000 0.00000 0.00000 0.000 0.00000
N1229861985 N1229861985  0 0        0.00000 0.00000 0.00000 0.00000 0.00000 0.00000 0.00000 0.00000 0.000 0.00000
N1229861988 N1229861988  0 0        0.00000 0.00000 0.00000 0.00000 0.00000 0.00000 0.00000 0.00000 0.000 0.00000
N1229861991 N1229861991  0 0        0.00000 0.00000 0.00000 0.00000 0.00000 0.00000 0.00000 0.00000 0.000 0.00000
N1229861994 N1229861994  0 0        0.00000 0.00000 0.00000 0.00000 0.00000 0.00000 0.00000 0.00000 0.000 0.00000
N1229860901 N1229860901  0 0        0.00000 0.00000 0.00000 0.00000 0.00000 0.00000 0.00000 0.00000 0.000 0.00000
N1229860904 N1229860904  0 0        0.00000 0.00000 0.00000 0.00000 0.00000 0.00000 0.00000 0.00000 0.000 0.00000
N1229860907 N1229860907  0 0        0.00000 0.00000 0.00000 0.00000 0.00000 0.00000 0.00000 0.00000 0.000 0.00000
N1229860910 N1229860910  0 0        0.00000 0.00000 0.00000 0.00000 0.00000 0.00000 0.00000 0.00000 0.000 0.00000
N1229860354 N1229860354  0 0        0.00000 0.00000 0.00000 0.00000 0.00000 0.00000 0.00000 0.00000 0.000 0.00000
N1229860357 N1229860357  0 0        0.00000 0.00000 0.00000 0.00000 0.00000 0.00000 0.00000 0.00000 0.000 0.00000
N1229860360 N1229860360  0 0        0.00000 0.00000 0.00000 0.00000 0.00000 0.00000 0.00000 0.00000 0.000 0.00000
N1229860363 N1229860363  0 0        0.00000 0.00000 0.00000 0.00000 0.00000 0.00000 0.00000 0.00000 0.000 0.00000
N1229860366 N1229860366  0 0        0.00000 0.00000 0.00000 0.00000 0.00000 0.00000 0.00000 0.00000 0.000 0.00000
N1229859544 N1229859544  0 0        0.00000 0.00000 0.00000 0.00000 0.00000 0.00000 0.00000 0.00000 0.000 0.00000
N1229859265 N1229859265  0 0        0.00000 0.00000 0.00000 0.00000 0.00000 0.00000 0.00000 0.00000 0.000 0.00000
N1229858452 N1229858452  0 0        0.00000 0.00000 0.00000 0.00000 0.00000 0.00000 0.00000 0.00000 0.000 0.00000
N1229857372 N1229857372  0 0        0.00000 0.00000 0.00000 0.00000 0.00000 0.00000 0.00000 0.00000 0.000 0.00000
N1229857369 N1229857369  0 0        0.00000 0.00000 0.00000 0.00000 0.00000 0.00000 0.00000 0.00000 0.000 0.00000
N1229857366 N1229857366  0 0        0.00000 0.00000 0.00000 0.00000 0.00000 0.00000 0.00000 0.00000 0.000 0.00000
N1229857360 N1229857360  0 0        0.00000 0.00000 0.00000 0.00000 0.00000 0.00000 0.00000 0.00000 0.000 0.00000
N1229857089 N1229857089  0 0        0.00000 0.00000 0.00000 0.00000 0.00000 0.00000 0.00000 0.00000 0.000 0.00000
N1229857092 N1229857092  0 0        0.00000 0.00000 0.00000 0.00000 0.00000 0.00000 0.00000 0.00000 0.000 0.00000
N1229857095 N1229857095  0 0        0.00000 0.00000 0.00000 0.00000 0.00000 0.00000 0.00000 0.00000 0.000 0.00000
N1229857098 N1229857098  0 0        0.00000 0.00000 0.00000 0.00000 0.00000 0.00000 0.00000 0.00000 0.000 0.00000
N1229857101 N1229857101  0 0        0.00000 0.00000 0.00000 0.00000 0.00000 0.00000 0.00000 0.00000 0.000 0.00000
N1229856544 N1229856544  0 0        0.00000 0.00000 0.00000 0.00000 0.00000 0.00000 0.00000 0.00000 0.000 0.00000
N1229856547 N1229856547  0 0        0.00000 0.00000 0.00000 0.00000 0.00000 0.00000 0.00000 0.00000 0.000 0.00000
N1229856550 N1229856550  0 0        0.00000 0.00000 0.00000 0.00000 0.00000 0.00000 0.00000 0.00000 0.000 0.00000
N1229856553 N1229856553  0 0        0.00000 0.00000 0.00000 0.00000 0.00000 0.00000 0.00000 0.00000 0.000 0.00000
N1229856273 N1229856273  0 0        0.00000 0.00000 0.00000 0.00000 0.00000 0.00000 0.00000 0.00000 0.000 0.00000
N1229855194 N1229855194  0 0        0.00000 0.00000 0.00000 0.00000 0.00000 0.00000 0.00000 0.00000 0.000 0.00000
N1229855191 N1229855191  0 0        0.00000 0.00000 0.00000 0.00000 0.00000 0.00000 0.00000 0.00000 0.000 0.00000
N1229855185 N1229855185  0 0        0.00000 0.00000 0.00000 0.00000 0.00000 0.00000 0.00000 0.00000 0.000 0.00000
N1229843230 N1229843230  0 0        0.00000 0.00000 0.00000 0.00000 0.00000 0.00000 0.00000 0.00000 0.000 0.00000
N1229843227 N1229843227  0 0        0.00000 0.00000 0.00000 0.00000 0.00000 0.00000 0.00000 0.00000 0.000 0.00000
N1229843224 N1229843224  0 0        0.00000 0.00000 0.00000 0.00000 0.00000 0.00000 0.00000 0.00000 0.000 0.00000
N1229843218 N1229843218  0 0        0.00000 0.00000 0.00000 0.00000 0.00000 0.00000 0.00000 0.00000 0.000 0.00000
N1229842959 N1229842959  0 0        0.00000 0.00000 0.00000 0.00000 0.00000 0.00000 0.00000 0.00000 0.000 0.00000
...